Version 4
SHEET 1 1088 680
WIRE 112 -352 80 -352
WIRE 112 -336 112 -352
WIRE 80 -304 80 -352
WIRE -128 -288 -176 -288
WIRE 48 -288 -128 -288
WIRE -176 -272 -176 -288
WIRE 160 -272 112 -272
WIRE 224 -272 160 -272
WIRE 384 -272 304 -272
WIRE 528 -272 384 -272
WIRE 544 -272 528 -272
WIRE 48 -256 16 -256
WIRE 384 -256 384 -272
WIRE 528 -256 528 -272
WIRE 80 -224 80 -240
WIRE 160 -192 160 -272
WIRE -176 -176 -176 -192
WIRE 384 -160 384 -192
WIRE 528 -160 528 -176
WIRE 16 -96 16 -256
WIRE 160 -96 160 -112
WIRE 160 -96 16 -96
WIRE 160 -80 160 -96
WIRE 160 48 160 0
WIRE 416 48 416 32
WIRE 576 48 576 32
WIRE -144 128 -208 128
WIRE -16 128 -144 128
WIRE 80 128 64 128
WIRE 112 128 80 128
WIRE 80 144 80 128
WIRE 416 144 416 128
WIRE 576 144 576 128
WIRE -208 160 -208 128
WIRE 80 240 80 224
WIRE -208 256 -208 240
WIRE 160 368 160 144
WIRE 272 368 160 368
FLAG 80 240 0
FLAG -176 -176 0
FLAG -208 256 0
FLAG 416 144 0
FLAG 416 32 +3V3
FLAG 80 -224 +3V3
FLAG 112 -336 0
FLAG 528 -160 0
FLAG 544 -272 AMPout
IOPIN 544 -272 Out
FLAG -144 128 GainSwitch
FLAG -128 -288 AMPin
FLAG 384 -160 0
FLAG 272 368 Vbias
FLAG 576 144 0
FLAG 576 32 Vbias
SYMBOL res 144 -96 R0
WINDOW 3 34 86 Left 2
SYMATTR InstName R2
SYMATTR Value 5k6
SYMBOL nmos 112 48 R0
SYMATTR InstName M1
SYMATTR Value BSS123
SYMBOL res 64 128 R0
SYMATTR InstName R3
SYMATTR Value 10k
SYMBOL res 80 112 R90
WINDOW 0 0 56 VBottom 2
WINDOW 3 32 56 VTop 2
SYMATTR InstName R4
SYMATTR Value 10
SYMBOL Opamps\\LT1492 80 -208 M180
SYMATTR InstName U1
SYMBOL voltage -208 144 R0
WINDOW 3 -485 -9 Left 2
WINDOW 123 0 0 Left 0
WINDOW 39 0 0 Left 0
SYMATTR Value PULSE(0 3.3 1 10p 10p 1 2)
SYMATTR InstName V1
SYMBOL voltage -176 -288 R0
WINDOW 3 -263 6 Left 2
WINDOW 123 0 0 Left 0
WINDOW 39 0 0 Left 0
SYMATTR Value PULSE(0 3.3 1 1 10p 0 1)
SYMATTR InstName V2
SYMBOL voltage 416 32 R0
WINDOW 123 0 0 Left 0
WINDOW 39 0 0 Left 0
SYMATTR InstName V3
SYMATTR Value 3.3
SYMBOL res 512 -272 R0
SYMATTR InstName R5
SYMATTR Value 10k
SYMBOL res 144 -208 R0
SYMATTR InstName R1
SYMATTR Value 47k
SYMBOL cap 368 -256 R0
SYMATTR InstName C1
SYMATTR Value 100n
SYMBOL res 320 -288 R90
WINDOW 0 0 56 VBottom 2
WINDOW 3 32 56 VTop 2
SYMATTR InstName R6
SYMATTR Value 100
SYMBOL voltage 576 32 R0
WINDOW 123 0 0 Left 0
WINDOW 39 0 0 Left 0
SYMATTR InstName V4
SYMATTR Value 1
TEXT -576 328 Left 2 !.tran 10
