Version 4
SHEET 1 1604 680
WIRE 112 -352 80 -352
WIRE 112 -336 112 -352
WIRE 80 -304 80 -352
WIRE -128 -288 -176 -288
WIRE 48 -288 -128 -288
WIRE -176 -272 -176 -288
WIRE 160 -272 112 -272
WIRE 224 -272 160 -272
WIRE 384 -272 304 -272
WIRE 528 -272 384 -272
WIRE 544 -272 528 -272
WIRE 48 -256 16 -256
WIRE 384 -256 384 -272
WIRE 528 -256 528 -272
WIRE 80 -224 80 -240
WIRE 160 -192 160 -272
WIRE -176 -176 -176 -192
WIRE -496 -160 -496 -176
WIRE 384 -160 384 -192
WIRE 528 -160 528 -176
WIRE 16 -96 16 -256
WIRE 160 -96 160 -112
WIRE 160 -96 16 -96
WIRE 160 -80 160 -96
WIRE -496 -64 -496 -80
WIRE 320 48 320 32
WIRE 160 128 160 0
WIRE 224 128 160 128
WIRE 480 128 416 128
WIRE 96 192 32 192
WIRE 224 192 96 192
WIRE 32 224 32 192
WIRE 528 256 528 240
WIRE 32 320 32 304
WIRE 256 320 256 304
WIRE 384 320 384 304
WIRE 528 352 528 336
FLAG -176 -176 0
FLAG 32 320 0
FLAG -496 -64 0
FLAG -496 -176 +3V3
FLAG 80 -224 +3V3
FLAG 112 -336 0
FLAG 528 -160 0
FLAG 544 -272 AMPout
IOPIN 544 -272 Out
FLAG 96 192 GainSwitch
FLAG -128 -288 AMPin
FLAG 384 -160 0
FLAG 480 128 Vbias
FLAG 528 352 0
FLAG 528 240 Vbias
FLAG 256 320 0
FLAG 384 320 0
FLAG 320 32 +3V3
SYMBOL res 144 -96 R0
WINDOW 3 34 86 Left 2
SYMATTR InstName R2
SYMATTR Value 5k6
SYMBOL voltage 32 208 R0
WINDOW 3 -336 0 Left 2
WINDOW 123 0 0 Left 0
WINDOW 39 0 0 Left 0
SYMATTR Value PULSE(0 3.3 1 10p 10p 1 2)
SYMATTR InstName V1
SYMBOL voltage -176 -288 R0
WINDOW 3 -314 9 Left 2
WINDOW 123 0 0 Left 0
WINDOW 39 0 0 Left 0
SYMATTR Value PULSE(0 3.3 1 1 10p 0 1)
SYMATTR InstName V2
SYMBOL voltage -496 -176 R0
WINDOW 123 0 0 Left 0
WINDOW 39 0 0 Left 0
SYMATTR InstName V3
SYMATTR Value 3.3
SYMBOL res 512 -272 R0
SYMATTR InstName R5
SYMATTR Value 10k
SYMBOL res 144 -208 R0
SYMATTR InstName R1
SYMATTR Value 47k
SYMBOL cap 368 -256 R0
SYMATTR InstName C1
SYMATTR Value 100n
SYMBOL res 320 -288 R90
WINDOW 0 0 56 VBottom 2
WINDOW 3 32 56 VTop 2
SYMATTR InstName R6
SYMATTR Value 100
SYMBOL voltage 528 240 R0
WINDOW 123 0 0 Left 0
WINDOW 39 0 0 Left 0
SYMATTR InstName V4
SYMATTR Value PWL(0 0 2 0 2.1 0.5 4 0.5 4.1 1 6 1 6.1 1.5 8 1.5 8.1 2 10 2 10.1 2.5 12 2.5 12.1 3.3 14 3.3)
SYMBOL Switches\\ADG1612 320 176 R0
SYMATTR InstName U2
SYMBOL Opamps\\LT1491 80 -208 M180
SYMATTR InstName U3
TEXT -504 0 Left 2 !.tran 14
TEXT 1040 88 Left 2 !.model SW SW(Ron=1 Roff=1Meg Vt=.5 Vh=.1)
