Version 4
SHEET 1 1604 680
WIRE 112 -352 80 -352
WIRE 112 -336 112 -352
WIRE 80 -304 80 -352
WIRE -128 -288 -176 -288
WIRE 48 -288 -128 -288
WIRE 160 -272 112 -272
WIRE 224 -272 160 -272
WIRE 384 -272 304 -272
WIRE 528 -272 384 -272
WIRE 544 -272 528 -272
WIRE 48 -256 16 -256
WIRE 384 -256 384 -272
WIRE 528 -256 528 -272
WIRE 80 -224 80 -240
WIRE 160 -192 160 -272
WIRE -496 -160 -496 -176
WIRE 384 -160 384 -192
WIRE 528 -160 528 -176
WIRE 16 -96 16 -256
WIRE 160 -96 160 -112
WIRE 160 -96 16 -96
WIRE 160 -80 160 -96
WIRE -496 -64 -496 -80
WIRE 160 64 160 0
WIRE 272 64 160 64
WIRE 416 64 352 64
WIRE 320 240 320 192
WIRE 160 272 160 64
WIRE 288 272 160 272
WIRE 416 272 416 64
WIRE 416 272 352 272
WIRE 480 272 416 272
WIRE 288 304 224 304
WIRE 96 336 32 336
WIRE 224 336 224 304
WIRE 224 336 96 336
WIRE 320 368 320 336
WIRE 0 0 0 0
FLAG -496 -64 0
FLAG -496 -176 +3V3
FLAG 80 -224 +3V3
FLAG 112 -336 0
FLAG 528 -160 0
FLAG 544 -272 AMPout
IOPIN 544 -272 Out
FLAG 96 336 GainSwitch
FLAG -128 -288 AMPin
FLAG 384 -160 0
FLAG 320 368 0
FLAG 320 192 +3V3
FLAG -176 -288 AMPin
IOPIN -176 -288 In
FLAG 32 336 SWITCH
IOPIN 32 336 In
FLAG 480 272 Ubias
IOPIN 480 272 In
SYMBOL res 144 -96 R0
WINDOW 3 34 86 Left 2
SYMATTR Value 5k6
SYMATTR InstName R2
SYMBOL voltage -496 -176 R0
WINDOW 123 0 0 Left 0
WINDOW 39 0 0 Left 0
SYMATTR InstName V3
SYMATTR Value 3.3
SYMBOL res 512 -272 R0
SYMATTR InstName R5
SYMATTR Value 10k
SYMBOL res 144 -208 R0
SYMATTR InstName R1
SYMATTR Value 47k
SYMBOL cap 368 -256 R0
SYMATTR InstName C1
SYMATTR Value 100n
SYMBOL res 320 -288 R90
WINDOW 0 0 56 VBottom 2
WINDOW 3 32 56 VTop 2
SYMATTR InstName R6
SYMATTR Value 100
SYMBOL Opamps\\LT1491 80 -208 M180
SYMATTR InstName U3
SYMBOL ZZZ\\SwitchAnalog\\cd4066 320 288 R0
WINDOW 38 3 35 Left 0
SYMATTR InstName U2
SYMBOL res 368 48 R90
WINDOW 0 0 56 VBottom 2
WINDOW 3 32 56 VTop 2
SYMATTR InstName R3
SYMATTR Value 10Meg
