Version 4
SHEET 1 1380 1152
WIRE 208 432 160 432
WIRE 432 432 208 432
WIRE -400 448 -400 432
WIRE -400 448 -448 448
WIRE -368 448 -400 448
WIRE -448 464 -448 448
WIRE 208 464 160 464
WIRE 432 464 208 464
WIRE -448 560 -448 544
FLAG -400 432 current_setpoint
FLAG 208 432 Imeas
FLAG 208 464 Umeas
FLAG -448 560 0
SYMBOL current_source -112 448 R0
SYMATTR InstName X1
SYMBOL voltage -448 448 R0
WINDOW 123 0 0 Left 0
WINDOW 39 0 0 Left 0
SYMATTR InstName V1
SYMATTR Value PULSE(0 3.3 0.1 1 1 0 2)
TEXT -280 264 Left 2 !.tran 1.1\n;.op\n.TEMP=30
TEXT -640 624 Left 2 ;.options gmin=1e-10\n.options abstol=1e-10\n.options reltol=0.003\n.options chgtol=1e-14\n.options trtol=1\n.options sstol=0.001\n.options MinDeltaGmin=0.0001\n \n.options srcsteps=0
